REMARK  Name = ZINC03814434
REMARK                            x       y       z     vdW  Elec       q    Type
REMARK                         _______ _______ _______ _____ _____    ______ ____
ROOT
ATOM      1  C   LIG    1        1.805  -2.330   1.257  0.00  0.00    +0.148 C 
ATOM      2  C   LIG    1        1.061  -3.088   0.134  0.00  0.00    +0.107 C 
ATOM      3  C   LIG    1       -0.478  -2.786   0.279  0.00  0.00    +0.196 C 
ATOM      4  C   LIG    1       -0.749  -1.472  -0.475  0.00  0.00    +0.115 C 
ATOM      5  C   LIG    1       -0.430  -1.645  -1.962  0.00  0.00    +0.147 C 
ATOM      6  C   LIG    1        0.880  -2.413  -2.183  0.00  0.00    +0.234 C 
ATOM      7  N   LIG    1        0.734  -3.719  -2.776  0.00  0.00    -0.338 N 
ATOM      8  C   LIG    1        0.406  -3.976  -4.125  0.00  0.00    +0.015 A 
ATOM      9  C   LIG    1        0.135  -3.050  -5.155  0.00  0.00    +0.052 A 
ATOM     10  C   LIG    1       -0.170  -3.514  -6.435  0.00  0.00    +0.013 A 
ATOM     11  C   LIG    1       -0.208  -4.871  -6.707  0.00  0.00    +0.008 A 
ATOM     12  C   LIG    1        0.062  -5.806  -5.703  0.00  0.00    +0.034 A 
ATOM     13  C   LIG    1        0.377  -5.396  -4.387  0.00  0.00    +0.004 A 
ATOM     14  C   LIG    1        0.703  -6.060  -3.178  0.00  0.00    +0.045 A 
ATOM     15  C   LIG    1        0.746  -7.455  -2.970  0.00  0.00    +0.082 A 
ATOM     16  C   LIG    1        0.497  -8.647  -3.724  0.00  0.00    +0.188 C 
ATOM     17  N   LIG    1        0.690  -9.668  -2.795  0.00  0.00    -0.309 N 
ATOM     18  H   LIG    1        0.551 -10.627  -3.081  0.00  0.00    +0.190 HD
ATOM     19  C   LIG    1        1.046  -9.259  -1.449  0.00  0.00    +0.204 C 
ATOM     20  O   LIG    1        0.165  -8.876  -4.875  0.00  0.00    -0.368 OA
ATOM     21  C   LIG    1        1.071  -7.810  -1.646  0.00  0.00    +0.009 A 
ATOM     22  C   LIG    1        1.298  -6.723  -0.785  0.00  0.00    +0.023 A 
ATOM     23  C   LIG    1        1.472  -6.801   0.615  0.00  0.00    +0.000 A 
ATOM     24  C   LIG    1        1.542  -7.870   1.541  0.00  0.00    +0.033 A 
ATOM     25  C   LIG    1        1.666  -7.632   2.910  0.00  0.00    +0.008 A 
ATOM     26  C   LIG    1        1.748  -6.337   3.386  0.00  0.00    +0.013 A 
ATOM     27  C   LIG    1        1.691  -5.247   2.514  0.00  0.00    +0.052 A 
ATOM     28  C   LIG    1        1.532  -5.444   1.125  0.00  0.00    +0.017 A 
ATOM     29  C   LIG    1        1.232  -5.341  -0.995  0.00  0.00    +0.056 A 
ATOM     30  C   LIG    1        0.904  -4.979  -2.301  0.00  0.00    +0.058 A 
ATOM     31  N   LIG    1        1.363  -4.504   0.075  0.00  0.00    -0.329 N 
ATOM     32  O   LIG    1        1.663  -2.468  -1.012  0.00  0.00    -0.389 OA
ENDROOT
BRANCH   4  33
ATOM     33  N   LIG    1       -2.229  -1.144  -0.314  0.00  0.00    +0.436 N 
ATOM     34  H   LIG    1       -2.466  -1.117   0.687  0.00  0.00    +0.138 HD
ATOM     35  H   LIG    1       -2.752  -1.961  -0.678  0.00  0.00    +0.138 HD
ATOM     36  C   LIG    1       -2.717   0.108  -0.945  0.00  0.00    +0.161 C 
ENDBRANCH   4  33
BRANCH   3  37
ATOM     37  O   LIG    1       -1.418  -3.701  -0.327  0.00  0.00    -0.441 OA
ATOM     38  C   LIG    1       -1.718  -4.874   0.428  0.00  0.00    +0.252 C 
ENDBRANCH   3  37
TORSDOF 2
